src/test/resources/pst_special/error/20260620_1130_2D3_SI0.UCT
##C 2007.05.01
##N
##ZSI
LBERIC1  BERICEVO     0 0            9.4     3.0     3.2     2.3     5.9     7.7     2.8     4.6   7.4     8.0     1.1          
LDIVAC11 DIVACA       0 0            2.9     1.5     0.1     1.6     8.8     3.0     6.2     0.6   0.8     0.7     4.3          
LDIVAC12 LDIVAC12     0 0            6.7     3.9     5.0     6.5     2.0     3.7     0.5     8.3   3.1     4.1     3.1          
LDIVAC51 LDIVAC51     0 0          541.3     4.4     7.7     4.6     9.6     2.9     0.5     1.8   3.3     0.1     7.9         
##ZXX
XRE_DI11 REDIPUGLIA   0 2  680.8    08.4    79.2     8.7     7.3     8.3     8.0   136.7  -953.0   6.6     1.0     2.4         
XME_DI11 MELINA       0 2  605.6  -158.5  -905.0     7.3     9.7     8.1     9.8     5.9     1.0   5.7     9.9     1.9         
##L
LDIVAC12 XRE_DI11 1 0  6.569  8.232   96.996   2700 XXXXXXXXXXXX
LDIVAC11 XME_DI11 1 0   0.84 59.397   296.12   1920 XXXXXXXXXXXX
LDIVAC11 LBERIC1  1 0  6.475 76.258   760.78   1920 XXXXXXXXXXXX
LDIVAC12 LDIVAC11 2 7   7.14   2.96      3.8   9999 XXXXXXXXXXXX
##T
LDIVAC11 LDIVAC12 1 0 169.3 057.3  1200   9.45 37.903   -7.656  2.863   1732 XXXXXXXXXXXX
LDIVAC51 LDIVAC11 1 0 541.7 096.2   300 5.8596  6.666 -382.436 69.650   1506 XXXXXXXXXXXX
##R
LDIVAC51 LDIVAC11 1   2.2 12  -1     0                          
